OPT_V9/My_campus_w_initial_sub_3_active_28_03_16_28/powerflow_results_t1.txt
Pandapower Network Debug Info
==================================================

BUS:
       vm_pu  va_degree      p_mw        q_mvar
0   1.003582   0.162066 -0.003869  2.488880e-04
1   1.004821   0.217235 -0.001049 -7.882277e-07
2   1.005772   0.259507 -0.001057  0.000000e+00
3   1.004894   0.203824 -0.001762 -2.726648e-04
4   1.000834   0.037149 -0.000435 -1.789216e-07
5   1.002543   0.119999 -0.000386 -1.285187e-05
6   1.005117   0.234791 -0.002974  0.000000e+00
7   1.003031   0.141653 -0.004576 -1.131459e-05
8   1.000306   0.013570 -0.001317 -4.346686e-04
9   0.999951   0.002606  0.001822  9.833248e-03
10  0.999943   0.002875  0.002783  8.108654e-03
11  0.999937   0.003090  0.004553  1.121126e-02
12  0.999945   0.004534 -0.001558  5.584324e-03
13  0.999926   0.005082  0.002855  1.136530e-02
14  0.999932   0.004826  0.006969  9.924552e-03
15  0.999976   0.001631  0.000000  0.000000e+00
16  0.999976   0.001631  0.000000  0.000000e+00
17  0.999946   0.004399  0.000000  0.000000e+00
18  0.999946   0.004399  0.000000  0.000000e+00
19  1.000000   0.000000 -0.001477 -3.415600e-02
20  1.000000   0.000005  0.000000  0.000000e+00
21  1.000000   0.000000  0.001368 -3.144115e-02
22  1.000000   0.000004  0.000000  0.000000e+00
--------------------------------------------------

LINE:
    p_from_mw   q_from_mvar   p_to_mw     q_to_mvar         pl_mw       ql_mvar  i_from_ka   i_to_ka      i_ka  vm_from_pu  va_from_degree  vm_to_pu  va_to_degree  loading_percent
0    0.001467  3.015601e-02 -0.001466 -3.015532e-02  8.916051e-07  6.951992e-07   0.001162  0.001162  0.001162    1.000000        0.000005  0.999976      0.001631         0.505251
1   -0.001378  2.744116e-02  0.001380 -2.743958e-02  2.030626e-06  1.583312e-06   0.001058  0.001058  0.001058    1.000000        0.000004  0.999946      0.004399         0.459801
2    0.009160  2.915390e-02 -0.009159 -2.915334e-02  7.221635e-07  5.630828e-07   0.001176  0.001176  0.001176    0.999976        0.001631  0.999951      0.002606         0.511410
3   -0.001558  5.584333e-03  0.001558 -5.584324e-03  1.162509e-08  9.064277e-09   0.000223  0.000223  0.000223    0.999946        0.004399  0.999945      0.004534         0.097027
4    0.009824  2.129013e-02 -0.009824 -2.128990e-02  3.006506e-07  2.344222e-07   0.000903  0.000903  0.000903    0.999946        0.004399  0.999932      0.004826         0.392410
5   -0.007703  1.518985e-06  0.007731  2.012390e-05  2.775737e-05  2.164288e-05   0.011119  0.011119  0.011119    0.999976        0.001631  1.003582      0.162066         4.834455
6   -0.003344 -1.445792e-07  0.003352  6.908957e-06  8.675433e-06  6.764378e-06   0.004827  0.004827  0.004827    0.999946        0.004399  1.002543      0.119999         2.098541
7   -0.004561 -3.528030e-07  0.004576  1.131466e-05  1.405877e-05  1.096185e-05   0.006584  0.006584  0.006584    0.999946        0.004399  1.003031      0.141653         2.862715
8   -0.001751 -4.342323e-04  0.001752  4.346687e-04  5.597086e-07  4.364140e-07   0.002604  0.002604  0.002604    0.999946        0.004399  1.000306      0.013570         1.132263
9   -0.007336 -1.931997e-02  0.007337  1.932009e-02  1.477124e-07  1.151738e-07   0.000795  0.000795  0.000795    0.999943        0.002875  0.999951      0.002606         0.345862
10  -0.004553 -1.121126e-02  0.004553  1.121132e-02  7.161957e-08  5.584295e-08   0.000466  0.000466  0.000466    0.999937        0.003090  0.999943      0.002875         0.202513
11   0.002855  1.136535e-02 -0.002855 -1.136530e-02  6.716798e-08  5.237198e-08   0.000451  0.000451  0.000451    0.999932        0.004826  0.999926      0.005082         0.196118
12   0.002105  9.160489e-09 -0.002102  2.015139e-06  2.596200e-06  2.024300e-06   0.003024  0.003024  0.003024    1.004821        0.217235  1.003582      0.162066         1.314611
13   0.001762  2.726650e-04 -0.001759 -2.710269e-04  2.100835e-06  1.638056e-06   0.002560  0.002560  0.002560    1.004894        0.203824  1.003582      0.162066         1.113171
14   0.001057  8.525413e-11 -0.001056  7.791222e-07  9.993471e-07  7.792074e-07   0.001517  0.001517  0.001517    1.005772        0.259507  1.004821      0.217235         0.659603
15  -0.000434 -1.093066e-10  0.000435  1.789217e-07  2.293300e-07  1.788124e-07   0.000627  0.000627  0.000627    1.000306        0.013570  1.000834      0.037149         0.272446
16   0.002974  1.932202e-10 -0.002966  5.942917e-06  7.622142e-06  5.943110e-06   0.004271  0.004271  0.004271    1.005117        0.234791  1.002543      0.119999         1.856843
--------------------------------------------------

TRAFO:
    p_hv_mw  q_hv_mvar   p_lv_mw  q_lv_mvar    pl_mw  ql_mvar   i_hv_ka   i_lv_ka  vm_hv_pu  va_hv_degree  vm_lv_pu  va_lv_degree  loading_percent
0 -0.007693   0.001001  0.007703  -0.000002  0.00001    0.001  0.000299  0.011119  0.999976      0.001631  0.999976      0.001631         0.077585
1 -0.009646   0.000565  0.009656   0.000435  0.00001    0.001  0.000372  0.013953  0.999946      0.004399  0.999946      0.004399         0.096667
2  0.001477   0.034156 -0.001467  -0.030156  0.00001    0.004  0.000282  0.001162  1.000000      0.000000  1.000000      0.000005         0.085470
3 -0.001368   0.031441  0.001378  -0.027441  0.00001    0.004  0.000260  0.001058  1.000000      0.000000  1.000000      0.000004         0.078677
--------------------------------------------------
